<?xml version="1.0" encoding="UTF-8"?>

<!-- generated on 2023-09-10 13:00:44 by Eclipse SUMO duarouter Version 1.12.0
<configuration xmlns:xsi="http://www.w3.org/2001/XMLSchema-instance" xsi:noNamespaceSchemaLocation="http://sumo.dlr.de/xsd/duarouterConfiguration.xsd">

    <input>
        <net-file value="vake.net.xml"/>
        <route-files value="vake.vehicles.trips.xml"/>
    </input>

    <output>
        <output-file value="vake.vehicles.rou.xml"/>
        <alternatives-output value="vake.vehicles.rou.alt.xml"/>
    </output>

    <report>
        <ignore-errors value="true"/>
    </report>

</configuration>
-->

<routes xmlns:xsi="http://www.w3.org/2001/XMLSchema-instance" xsi:noNamespaceSchemaLocation="http://sumo.dlr.de/xsd/routes_file.xsd">
    <vehicle id="1" depart="0.00">
        <route edges="23560590#0 833428765#0 557086946#0 1125594742 532322039#0 532322037#0"/>
    </vehicle>
    <vehicle id="3" depart="0.00">
        <route edges="-23560614#1 -532322039#3 692973061#0 693467519#0 693467519#2 936543450 707457972#0 23560536#0 23560587#2"/>
    </vehicle>
    <vehicle id="5" depart="0.00">
        <route edges="-23560614#1 -532322039#3 692973061#0 845996846#0 23560611#0"/>
    </vehicle>
    <vehicle id="7" depart="0.00">
        <route edges="-49038772#1 832993435#0 557086948#5 -149098150#2 -23560597#1"/>
    </vehicle>
    <vehicle id="8" depart="1.00">
        <route edges="-49038772#1 542807708#3 557086947#0 -23560590#0"/>
    </vehicle>
    <vehicle id="10" depart="1.00">
        <route edges="23560590#0 833428765#0 557086946#0 1125594742 692973061#0 693467519#0 693467519#2 936543450 707457972#0 23560536#0 23560587#2"/>
    </vehicle>
    <vehicle id="11" depart="1.00">
        <route edges="-859186438#4 1174948411 845996846#0 23560611#0"/>
    </vehicle>
    <vehicle id="12" depart="1.00">
        <route edges="23560552#0 23560518#0 1174948411 845996846#0 845996846#8"/>
    </vehicle>
    <vehicle id="16" depart="2.00">
        <route edges="-859186438#4 936543450 23560513#0 23560513#3"/>
    </vehicle>
    <vehicle id="18" depart="2.00">
        <route edges="23560552#0 23560518#0 1174948411 235826551#0 235826551#4 1125594741#0 557086948#3 557086948#4 557086948#5 -149098150#2 -23560597#1"/>
    </vehicle>
    <vehicle id="19" depart="2.00">
        <route edges="-23560611#1 23560610#0 958578961#0 958578961#3 693467519#2 936543450 23560513#0 23560513#3"/>
    </vehicle>
    <vehicle id="20" depart="2.00">
        <route edges="23560555#0 136160205#0 845996846#0 23560611#0"/>
    </vehicle>
    <vehicle id="25" depart="3.00">
        <route edges="414217743#0 194900180 159464054 845996850#0 525704074#1 1125594742 692973061#0 693467519#0 693467519#2 936543450 707457972#0 542807707 753866466#0 -426720110#4 23560556#0 23560556#2 23560567#0"/>
    </vehicle>
    <vehicle id="26" depart="3.00">
        <route edges="-23560616#5 -532322039#3 692973061#0 845996846#0 23560611#0"/>
    </vehicle>
    <vehicle id="27" depart="3.00">
        <route edges="23560551#0 753866465#0 753866465#3 735188027#0 776140146#0 859186438#0"/>
    </vehicle>
    <vehicle id="28" depart="3.00">
        <route edges="-23560614#1 -532322039#3 692973061#0 693467519#0 -958578961#7 958578966#0"/>
    </vehicle>
    <vehicle id="30" depart="3.00">
        <route edges="23560552#0 707826528#0 832956458#0"/>
    </vehicle>
    <vehicle id="32" depart="4.00">
        <route edges="23560531 557086946#0 1125594742 692973061#0 693467519#0 -958578961#7 958578966#0"/>
    </vehicle>
    <vehicle id="34" depart="4.00">
        <route edges="23560531 557086946#0 1125594742 692973061#0 693467519#0 693467519#2 936543450 707457972#0 542807707 753866466#0 723085254 1144085347"/>
    </vehicle>
    <vehicle id="36" depart="4.00">
        <route edges="423199309#0 542807706 735188027#0 776140146#0 859186438#0"/>
    </vehicle>
    <vehicle id="39" depart="4.00">
        <route edges="23560552#0 23560518#0 1174948411 235826551#0 235826551#4 1125594741#0 557086948#3 557086948#4 557086948#5 -149098150#2 -23560597#1"/>
    </vehicle>
    <vehicle id="42" depart="5.00">
        <route edges="423199309#0 542807706 735188027#0 776140146#0 859186438#0"/>
    </vehicle>
    <vehicle id="46" depart="5.00">
        <route edges="-23560570#1 23560556#2 23560567#0"/>
    </vehicle>
    <vehicle id="47" depart="5.00">
        <route edges="-23560616#5 -532322039#3 692973061#0 693467519#0 693467519#2 859186438#0"/>
    </vehicle>
    <vehicle id="48" depart="6.00">
        <route edges="-23560614#1 -532322039#3 692973061#0 693467519#0 693467519#2 936543450 707457972#0 23560536#0 23560587#2"/>
    </vehicle>
    <vehicle id="52" depart="6.00">
        <route edges="23560551#0 753866465#0 753866465#3 753866466#0 723085254 1144085347"/>
    </vehicle>
    <vehicle id="54" depart="6.00">
        <route edges="414217743#0 194900180 159464054 845996850#0 525704074#1 1125594742 692973061#0 845996846#0 845996846#8"/>
    </vehicle>
    <vehicle id="55" depart="6.00">
        <route edges="-23560614#1 532322037#0"/>
    </vehicle>
    <vehicle id="57" depart="7.00">
        <route edges="125343236#0 23560561#0 -23560561#3 753866465#3 735188027#0 -23560541#4 832956458#0"/>
    </vehicle>
    <vehicle id="59" depart="7.00">
        <route edges="-958578966#2 958578961#3 693467519#2 936543450 707457972#0 542807707 753866466#0 -426720110#4 23560556#0 23560556#2 23560567#0"/>
    </vehicle>
    <vehicle id="60" depart="7.00">
        <route edges="23560555#0 136160205#0 693467519#0 -958578961#7 958578966#0"/>
    </vehicle>
    <vehicle id="68" depart="8.00">
        <route edges="-23560614#1 -532322039#3 692973061#0 693467519#0 693467519#2 936543450 23560513#0 23560513#3"/>
    </vehicle>
    <vehicle id="69" depart="8.00">
        <route edges="-859186438#4 1174948411 845996846#0 23560610#0 958578961#0 958578966#0"/>
    </vehicle>
    <vehicle id="70" depart="8.00">
        <route edges="23560597#0 542807708#0 542807708#3 557086947#0 833428765#0 557086946#0 1125594742 692973061#0 693467519#0 693467519#2 936543450 707457972#0 542807707 753866466#0 -426720110#4 23560556#0 23560556#2 23560567#0"/>
    </vehicle>
    <vehicle id="71" depart="8.00">
        <route edges="423199309#0 542807706 735188027#0 776140146#0 1174948411 845996846#0 23560610#0 958578961#0 958578966#0"/>
    </vehicle>
    <vehicle id="73" depart="9.00">
        <route edges="623938941 194900180 159464054 845996850#0 525704074#1 1125594742 692973061#0 845996846#0 23560611#0"/>
    </vehicle>
    <vehicle id="74" depart="9.00">
        <route edges="23560590#0 833428765#0 -23560531"/>
    </vehicle>
    <vehicle id="80" depart="10.00">
        <route edges="23560551#0 753866465#0 753866465#3 753866466#0 -426720110#4 23560556#0 23560556#2 23560556#5 23560587#2"/>
    </vehicle>
    <vehicle id="84" depart="10.00">
        <route edges="125343236#0 23560561#0 -23560561#3 753866465#3 735188027#0 776140146#0 1174948411 845996846#0 23560610#0 958578961#0 958578966#0"/>
    </vehicle>
    <vehicle id="86" depart="10.00">
        <route edges="423199309#0 542807706 735188027#0 776140146#0 859186438#0"/>
    </vehicle>
    <vehicle id="87" depart="10.00">
        <route edges="-859186438#4 1174948411 235826551#0 235826551#4 1125594741#0 557086948#3 557086948#4 557086948#5 -149098150#2 -23560597#1"/>
    </vehicle>
    <vehicle id="92" depart="11.00">
        <route edges="23560531 557086946#0 1125594742 692973061#0 693467519#0 693467519#2 936543450 707457972#0 542807707 753866466#0 723085254 1144085347"/>
    </vehicle>
    <vehicle id="94" depart="11.00">
        <route edges="-23560616#5 -532322039#3 692973061#0 693467519#0 693467519#2 936543450 707457972#0 542807707 753866466#0 -426720110#4 23560556#0 23560556#2 23560567#0"/>
    </vehicle>
    <vehicle id="97" depart="12.00">
        <route edges="23560552#0 707826528#0 723085252#0 753866465#0 753866465#3 753866466#0 723085254 1144085347"/>
    </vehicle>
    <vehicle id="98" depart="12.00">
        <route edges="23560531 557086941#0 23560534#0"/>
    </vehicle>
    <vehicle id="100" depart="12.00">
        <route edges="23560531 557086946#0 1125594742 692973061#0 845996846#0 845996846#8"/>
    </vehicle>
    <vehicle id="103" depart="12.00">
        <route edges="414217743#0 194900180 159464054 845996850#0 -370693008#2"/>
    </vehicle>
    <vehicle id="106" depart="13.00">
        <route edges="423199309#0 542807706 735188027#0 776140146#0 859186438#0"/>
    </vehicle>
    <vehicle id="108" depart="13.00">
        <route edges="23560590#0 833428765#0 557086946#0 1125594741#0 557086948#3 557086948#4 557086948#5 220709393"/>
    </vehicle>
    <vehicle id="111" depart="13.00">
        <route edges="370693008#0 525704074#1 1125594742 692973061#0 845996846#0 845996846#8"/>
    </vehicle>
    <vehicle id="113" depart="14.00">
        <route edges="23560597#0 542807708#0 542807708#3 557086947#0 833428765#0 557086946#0 1125594742 692973061#0 693467519#0 693467519#2 936543450 707457972#0 542807707 753866466#0 723085254 1144085347"/>
    </vehicle>
    <vehicle id="117" depart="14.00">
        <route edges="423199309#0 542807706 735188027#0 776140146#0 1174948411 235826551#0 235826551#4 1125594741#0 833428766#0 -23560590#0"/>
    </vehicle>
    <vehicle id="118" depart="14.00">
        <route edges="-23560611#1 23560610#0 958578961#0 958578966#0"/>
    </vehicle>
    <vehicle id="121" depart="15.00">
        <route edges="-859186438#4 1174948411 845996846#0 23560611#0"/>
    </vehicle>
    <vehicle id="123" depart="15.00">
        <route edges="23560531 557086946#0 1125594742 532322039#0 532322039#4"/>
    </vehicle>
    <vehicle id="124" depart="15.00">
        <route edges="23560555#0 136160205#0 693467519#0 693467519#2 936543450 23560513#0 23560513#3"/>
    </vehicle>
    <vehicle id="125" depart="15.00">
        <route edges="23560555#0 136160205#0 235826551#0 235826551#4 1125594741#0 557086948#3 557086948#4 557086948#5 220709393"/>
    </vehicle>
    <vehicle id="126" depart="15.00">
        <route edges="370693008#0 525704074#1 1125594742 532322039#0 532322039#4"/>
    </vehicle>
    <vehicle id="130" depart="16.00">
        <route edges="23560552#0 23560518#0 1174948411 235826551#0 235826551#4 1125594741#0 557086948#3 23560592#0 140365927#0"/>
    </vehicle>
    <vehicle id="135" depart="16.00">
        <route edges="-23560567#1 23560556#5 23560587#2"/>
    </vehicle>
    <vehicle id="138" depart="17.00">
        <route edges="-199546554#2 -23560513#2 707457972#0 542807707 753866466#0 723085254 1144085347"/>
    </vehicle>
    <vehicle id="141" depart="17.00">
        <route edges="199546554#0 -23560513#2 707457972#0 542807707 753866466#0 723085254 1144085347"/>
    </vehicle>
    <vehicle id="144" depart="18.00">
        <route edges="423199309#0 125343238#0 -23560561#0 23560561#1 753866465#3 753866466#0 -426720110#4 23560556#0 23560556#2 23560556#5 23560587#2"/>
    </vehicle>
    <vehicle id="145" depart="18.00">
        <route edges="-23560616#5 -532322039#3 692973061#0 845996846#0 845996846#8"/>
    </vehicle>
    <vehicle id="147" depart="18.00">
        <route edges="23560551#0 753866465#0 753866465#3 735188027#0 776140146#0 1174948411 235826551#0 -23560550#3 839050886 693470010#2-AddedOnRampEdge 707457973#1 891323857#0"/>
    </vehicle>
    <vehicle id="150" depart="18.00">
        <route edges="23560590#0 833428765#0 557086946#0 1125594742 692973061#0 693467519#0 693467519#2 936543450 707457972#0 542807707 753866466#0 -426720110#4 23560556#0 23560556#2 23560567#0"/>
    </vehicle>
    <vehicle id="154" depart="19.00">
        <route edges="-49038772#1 542807708#3 557086947#0 833428765#0 557086946#0 1125594742 692973061#0 693467519#0 693467519#2 936543450 707457972#0 23560536#0 23560587#2"/>
    </vehicle>
    <vehicle id="158" depart="19.00">
        <route edges="414217743#0 194900180 159464054 845996850#0 525704074#1 1125594742 692973061#0 845996846#0 23560611#0"/>
    </vehicle>
    <vehicle id="162" depart="20.00">
        <route edges="23560590#0 833428765#0 557086946#0 1125594742 692973061#0 845996846#0 23560611#0"/>
    </vehicle>
    <vehicle id="167" depart="20.00">
        <route edges="-859186438#4 1174948411 845996846#0 23560611#0"/>
    </vehicle>
    <vehicle id="168" depart="21.00">
        <route edges="23560555#0 136160205#0 235826551#0 235826551#4 1125594741#0 833428766#0 -23560590#0"/>
    </vehicle>
    <vehicle id="171" depart="21.00">
        <route edges="23560590#0 833428765#0 557086946#0 1125594742 692973061#0 845996846#0 845996846#8"/>
    </vehicle>
    <vehicle id="174" depart="21.00">
        <route edges="23560597#0 542807708#0 542807708#3 557086947#0 833428765#0 557086946#0 1125594742 532322039#0 532322037#0"/>
    </vehicle>
    <vehicle id="178" depart="22.00">
        <route edges="23560597#0 542807708#0 832993435#0 557086948#5 -149098150#2 -23560597#1"/>
    </vehicle>
    <vehicle id="179" depart="22.00">
        <route edges="23560590#0 833428765#0 557086946#0 1125594741#0 833428766#0 -23560590#0"/>
    </vehicle>
    <vehicle id="184" depart="23.00">
        <route edges="23560597#0 542807708#0 542807708#3 557086947#0 833428765#0 557086946#0 1125594742 692973061#0 845996846#0 845996846#8"/>
    </vehicle>
    <vehicle id="186" depart="23.00">
        <route edges="-49038772#1 542807708#3 557086947#0 833428765#0 557086941#0 23560534#0"/>
    </vehicle>
    <vehicle id="189" depart="23.00">
        <route edges="23560552#0 23560518#0 1174948411 845996846#0 845996846#8"/>
    </vehicle>
    <vehicle id="193" depart="24.00">
        <route edges="-23560616#5 -532322039#3 692973061#0 845996846#0 845996846#8"/>
    </vehicle>
    <vehicle id="198" depart="24.00">
        <route edges="414217743#0 194900180 159464054 845996850#0 525704074#1 1125594742 532322039#0 532322039#4"/>
    </vehicle>
    <vehicle id="200" depart="25.00">
        <route edges="23560590#0 833428765#0 557086946#0 1125594742 692973061#0 693467519#0 693467519#2 936543450 707457972#0 542807707 753866466#0 -426720110#4 23560556#0 23560556#2 23560567#0"/>
    </vehicle>
    <vehicle id="202" depart="25.00">
        <route edges="23560597#0 542807708#0 542807708#3 557086947#0 -23560590#0"/>
    </vehicle>
    <vehicle id="204" depart="25.00">
        <route edges="125343236#0 23560561#0 -23560561#3 753866465#3 753866466#0 -426720110#4 23560556#0 23560556#2 23560556#5 23560587#2"/>
    </vehicle>
    <vehicle id="205" depart="25.00">
        <route edges="23560590#0 833428765#0 557086946#0 1125594741#0 557086948#3 557086948#4 557086948#5 220709393"/>
    </vehicle>
    <vehicle id="206" depart="25.00">
        <route edges="-23560616#5 -532322039#3 692973061#0 693467519#0 693467519#2 936543450 707457972#0 542807707 753866466#0 723085254 1144085347"/>
    </vehicle>
    <vehicle id="208" depart="26.00">
        <route edges="23560597#0 -23560599#2 845996850#0 -370693008#2"/>
    </vehicle>
    <vehicle id="210" depart="26.00">
        <route edges="23560531 557086946#0 1125594741#0 557086948#3 23560592#0 140365927#0"/>
    </vehicle>
    <vehicle id="211" depart="26.00">
        <route edges="-23560611#1 23560610#0 958578961#0 958578961#3 693467519#2 936543450 707457972#0 542807707 753866466#0 723085254 1144085347"/>
    </vehicle>
    <vehicle id="212" depart="26.00">
        <route edges="-199546554#2 -23560513#2 707457972#0 23560536#0 23560587#2"/>
    </vehicle>
    <vehicle id="213" depart="26.00">
        <route edges="623938941 194900180 159464054 845996850#0 525704074#1 1125594742 692973061#0 845996846#0 23560611#0"/>
    </vehicle>
    <vehicle id="215" depart="26.00">
        <route edges="370693008#0 525704074#1 1125594742 692973061#0 845996846#0 23560611#0"/>
    </vehicle>
    <vehicle id="217" depart="27.00">
        <route edges="423199309#0 125343238#0 -23560561#0 23560561#1 753866465#3 753866466#0 -426720110#4 23560556#0 23560556#2 23560567#0"/>
    </vehicle>
    <vehicle id="221" depart="27.00">
        <route edges="23560597#0 542807708#0 49038772#0"/>
    </vehicle>
    <vehicle id="222" depart="27.00">
        <route edges="-23560614#1 -532322039#3 692973061#0 693467519#0 693467519#2 936543450 707457972#0 23560536#0 23560587#2"/>
    </vehicle>
    <vehicle id="223" depart="27.00">
        <route edges="125343236#0 23560561#0 -23560561#3 753866465#3 735188027#0 776140146#0 1174948411 845996846#0 845996846#8"/>
    </vehicle>
    <vehicle id="225" depart="28.00">
        <route edges="23560590#0 833428765#0 557086941#0 693470010#1 693470010#2-AddedOnRampEdge 707457973#1 891323857#0"/>
    </vehicle>
    <vehicle id="226" depart="28.00">
        <route edges="-23560614#1 532322037#0"/>
    </vehicle>
    <vehicle id="231" depart="28.00">
        <route edges="23560597#0 542807708#0 49038772#0"/>
    </vehicle>
    <vehicle id="233" depart="29.00">
        <route edges="23560555#0 136160205#0 693467519#0 693467519#2 859186438#0"/>
    </vehicle>
    <vehicle id="235" depart="29.00">
        <route edges="23560590#0 833428765#0 557086946#0 1125594742 692973061#0 845996846#0 23560611#0"/>
    </vehicle>
    <vehicle id="237" depart="29.00">
        <route edges="423199309#0 125343238#0 -23560561#0 23560561#1 753866465#3 753866466#0 -426720110#4 23560556#0 23560556#2 23560556#5 23560587#2"/>
    </vehicle>
    <vehicle id="239" depart="29.00">
        <route edges="-49038772#1 542807708#3 557086947#0 833428765#0 557086946#0 1125594742 692973061#0 693467519#0 693467519#2 936543450 707457972#0 542807707 753866466#0 723085254 1144085347"/>
    </vehicle>
    <vehicle id="240" depart="30.00">
        <route edges="623938941 194900180 159464054 845996850#0 525704074#1 1125594742 692973061#0 845996846#0 845996846#8"/>
    </vehicle>
    <vehicle id="241" depart="30.00">
        <route edges="423199309#0 542807706 735188027#0 776140146#0 1174948411 845996846#0 23560610#0 958578961#0 958578966#0"/>
    </vehicle>
    <vehicle id="246" depart="30.00">
        <route edges="-49038772#1 542807708#3 557086947#0 833428765#0 557086946#0 1125594742 532322039#0 532322037#0"/>
    </vehicle>
    <vehicle id="247" depart="30.00">
        <route edges="-49038772#1 542807708#3 557086947#0 833428765#0 557086946#0 1125594742 532322039#0 532322039#4"/>
    </vehicle>
    <vehicle id="248" depart="31.00">
        <route edges="423199309#0 542807706 735188027#0 -23560541#4 832956458#0"/>
    </vehicle>
    <vehicle id="249" depart="31.00">
        <route edges="125343236#0 23560561#0 -23560561#3 753866465#3 735188027#0 776140146#0 1174948411 235826551#0 235826551#4 1125594741#0 557086948#3 23560592#0 140365927#0"/>
    </vehicle>
    <vehicle id="250" depart="31.00">
        <route edges="623938941 194900180 159464054 845996850#0 525704074#1 1125594742 692973061#0 693467519#0 693467519#2 936543450 23560513#0 23560513#3"/>
    </vehicle>
    <vehicle id="251" depart="31.00">
        <route edges="623938941 194900180 159464054 845996850#0 525704074#1 1125594742 532322039#0 532322037#0"/>
    </vehicle>
    <vehicle id="254" depart="31.00">
        <route edges="-23560614#1 -532322039#3 692973061#0 845996846#0 23560611#0"/>
    </vehicle>
    <vehicle id="259" depart="32.00">
        <route edges="125343236#0 23560561#0 -23560561#3 753866465#3 735188027#0 776140146#0 1174948411 235826551#0 235826551#4 1125594741#0 833428766#0 -23560590#0"/>
    </vehicle>
    <vehicle id="261" depart="32.00">
        <route edges="-23560616#5 -532322039#3 692973061#0 845996846#0 845996846#8"/>
    </vehicle>
    <vehicle id="262" depart="32.00">
        <route edges="-23560616#5 -532322039#3 692973061#0 845996846#0 23560611#0"/>
    </vehicle>
    <vehicle id="263" depart="32.00">
        <route edges="423199309#0 125343238#0 -23560561#0 23560561#1 753866465#3 753866466#0 -426720110#4 23560556#0 23560556#2 23560556#5 23560587#2"/>
    </vehicle>
    <vehicle id="267" depart="33.00">
        <route edges="23560551#0 753866465#0 753866465#3 735188027#0 776140146#0 1174948411 845996846#0 23560610#0 958578961#0 958578966#0"/>
    </vehicle>
    <vehicle id="268" depart="33.00">
        <route edges="-23560570#1 23560556#2 23560556#5 23560587#2"/>
    </vehicle>
    <vehicle id="269" depart="33.00">
        <route edges="23560531 557086946#0 1125594742 692973061#0 693467519#0 693467519#2 936543450 707457972#0 23560536#0 23560587#2"/>
    </vehicle>
    <vehicle id="271" depart="33.00">
        <route edges="23560551#0 753866465#0 753866465#3 753866466#0 723085254 1144085347"/>
    </vehicle>
    <vehicle id="275" depart="34.00">
        <route edges="-199546554#2 -23560513#2 707457972#0 23560536#0 23560587#2"/>
    </vehicle>
    <vehicle id="276" depart="34.00">
        <route edges="370693008#0 525704074#1 1125594742 692973061#0 693467519#0 693467519#2 859186438#0"/>
    </vehicle>
    <vehicle id="277" depart="34.00">
        <route edges="23560531 557086946#0 1125594742 692973061#0 693467519#0 693467519#2 936543450 707457972#0 542807707 753866466#0 -426720110#4 23560556#0 23560556#2 23560567#0"/>
    </vehicle>
    <vehicle id="279" depart="34.00">
        <route edges="125343236#0 23560561#0 -23560561#3 753866465#3 735188027#0 776140146#0 1174948411 845996846#0 23560610#0 958578961#0 958578966#0"/>
    </vehicle>
    <vehicle id="281" depart="35.00">
        <route edges="370693008#0 525704074#1 1125594742 692973061#0 845996846#0 845996846#8"/>
    </vehicle>
    <vehicle id="284" depart="35.00">
        <route edges="23560552#0 23560518#0 1174948411 235826551#0 -23560550#3 839050886 693470010#2-AddedOnRampEdge 707457973#1 891323857#0"/>
    </vehicle>
    <vehicle id="285" depart="35.00">
        <route edges="23560590#0 833428765#0 557086941#0 23560534#0"/>
    </vehicle>
    <vehicle id="286" depart="35.00">
        <route edges="23560552#0 23560518#0 859186438#0"/>
    </vehicle>
    <vehicle id="288" depart="36.00">
        <route edges="23560597#0 542807708#0 542807708#3 140365927#0"/>
    </vehicle>
    <vehicle id="289" depart="36.00">
        <route edges="-23560570#1 23560556#2 23560556#5 23560587#2"/>
    </vehicle>
    <vehicle id="290" depart="36.00">
        <route edges="23560597#0 542807708#0 832993435#0 557086948#5 -149098150#2 -23560597#1"/>
    </vehicle>
    <vehicle id="292" depart="36.00">
        <route edges="414217743#0 194900180 159464054 -149098150#2 -23560597#1"/>
    </vehicle>
    <vehicle id="293" depart="36.00">
        <route edges="-23560616#5 -532322039#3 692973061#0 693467519#0 693467519#2 936543450 707457972#0 542807707 753866466#0 723085254 1144085347"/>
    </vehicle>
    <vehicle id="297" depart="37.00">
        <route edges="-23560616#5 -532322039#3 692973061#0 845996846#0 845996846#8"/>
    </vehicle>
    <vehicle id="298" depart="37.00">
        <route edges="-859186438#4 936543450 707457972#0 542807707 753866466#0 -426720110#4 23560556#0 23560556#2 23560567#0"/>
    </vehicle>
    <vehicle id="299" depart="37.00">
        <route edges="23560551#0 753866465#0 753866465#3 735188027#0 776140146#0 1174948411 845996846#0 23560611#0"/>
    </vehicle>
    <vehicle id="301" depart="37.00">
        <route edges="-23560616#5 -532322039#3 692973061#0 845996846#0 23560611#0"/>
    </vehicle>
    <vehicle id="302" depart="37.00">
        <route edges="23560590#0 833428765#0 -23560531"/>
    </vehicle>
    <vehicle id="306" depart="38.00">
        <route edges="23560590#0 833428765#0 557086946#0 1125594742 532322039#0 532322037#0"/>
    </vehicle>
    <vehicle id="307" depart="38.00">
        <route edges="23560552#0 23560518#0 859186438#0"/>
    </vehicle>
    <vehicle id="309" depart="38.00">
        <route edges="23560590#0 833428765#0 -23560531"/>
    </vehicle>
    <vehicle id="310" depart="38.00">
        <route edges="23560590#0 833428765#0 557086946#0 1125594741#0 557086948#3 557086948#4 557086948#5 -149098150#2 -23560597#1"/>
    </vehicle>
    <vehicle id="311" depart="38.00">
        <route edges="23560531 557086946#0 1125594742 692973061#0 693467519#0 -958578961#7 958578966#0"/>
    </vehicle>
    <vehicle id="312" depart="39.00">
        <route edges="414217743#0 194900180 159464054 845996850#0 525704074#1 1125594742 692973061#0 845996846#0 845996846#8"/>
    </vehicle>
    <vehicle id="314" depart="39.00">
        <route edges="23560590#0 833428765#0 557086946#0 1125594741#0 557086948#3 557086948#4 557086948#5 220709393"/>
    </vehicle>
    <vehicle id="315" depart="39.00">
        <route edges="623938941 194900180 159464054 -149098150#2 -23560597#1"/>
    </vehicle>
    <vehicle id="316" depart="39.00">
        <route edges="370693008#0 525704074#1 1125594742 532322039#0 532322039#4"/>
    </vehicle>
    <vehicle id="320" depart="40.00">
        <route edges="23560551#0 753866465#0 753866465#3 735188027#0 776140146#0 1174948411 845996846#0 845996846#8"/>
    </vehicle>
    <vehicle id="321" depart="40.00">
        <route edges="-23560567#1 23560556#5 -23560536#0 542807707 753866466#0 723085254 1144085347"/>
    </vehicle>
    <vehicle id="322" depart="40.00">
        <route edges="414217743#0 194900180 159464054 845996850#0 525704074#1 1125594742 692973061#0 845996846#0 23560611#0"/>
    </vehicle>
    <vehicle id="328" depart="41.00">
        <route edges="23560590#0 833428765#0 557086941#0 693470010#1 693470010#2-AddedOnRampEdge 707457973#1 891323857#0"/>
    </vehicle>
    <vehicle id="329" depart="41.00">
        <route edges="23560590#0 833428765#0 557086946#0 1125594741#0 557086948#3 557086948#4 557086948#5 -149098150#2 -23560597#1"/>
    </vehicle>
    <vehicle id="330" depart="41.00">
        <route edges="-23560567#1 23560556#5 -23560536#0 542807707 753866466#0 -426720110#4 23560556#0 23560556#2 23560567#0"/>
    </vehicle>
    <vehicle id="331" depart="41.00">
        <route edges="423199309#0 92003250#0 -125343236#2"/>
    </vehicle>
    <vehicle id="332" depart="41.00">
        <route edges="125343236#0 23560561#0 -23560561#3 753866465#3 735188027#0 776140146#0 1174948411 235826551#0 -23560550#3 839050886 693470010#2-AddedOnRampEdge 707457973#1 891323857#0"/>
    </vehicle>
    <vehicle id="334" depart="41.00">
        <route edges="623938941 194900180 92003526#0 220709393"/>
    </vehicle>
    <vehicle id="340" depart="42.00">
        <route edges="-23560614#1 -532322039#3 692973061#0 693467519#0 693467519#2 859186438#0"/>
    </vehicle>
    <vehicle id="347" depart="43.00">
        <route edges="23560590#0 833428765#0 557086946#0 1125594742 692973061#0 693467519#0 693467519#2 936543450 707457972#0 542807707 753866466#0 -426720110#4 23560556#0 23560556#2 23560567#0"/>
    </vehicle>
    <vehicle id="349" depart="43.00">
        <route edges="423199309#0 92003250#0 -125343236#2"/>
    </vehicle>
    <vehicle id="350" depart="43.00">
        <route edges="370693008#0 525704074#1 1125594742 692973061#0 693467519#0 693467519#2 936543450 707457972#0 23560536#0 23560587#2"/>
    </vehicle>
    <vehicle id="355" depart="44.00">
        <route edges="23560552#0 23560518#0 1174948411 845996846#0 23560611#0"/>
    </vehicle>
    <vehicle id="356" depart="44.00">
        <route edges="623938941 194900180 159464054 845996850#0 525704074#1 1125594742 692973061#0 693467519#0 693467519#2 936543450 707457972#0 23560536#0 23560587#2"/>
    </vehicle>
    <vehicle id="357" depart="44.00">
        <route edges="23560552#0 23560518#0 1174948411 235826551#0 235826551#4 1125594741#0 833428766#0 -23560590#0"/>
    </vehicle>
    <vehicle id="358" depart="44.00">
        <route edges="370693008#0 525704074#1 1125594742 532322039#0 532322037#0"/>
    </vehicle>
    <vehicle id="362" depart="45.00">
        <route edges="23560555#0 136160205#0 693467519#0 693467519#2 936543450 23560513#0 23560513#3"/>
    </vehicle>
    <vehicle id="366" depart="45.00">
        <route edges="23560551#0 753866465#0 753866465#3 735188027#0 776140146#0 1174948411 235826551#0 235826551#4 1125594741#0 557086948#3 557086948#4 557086948#5 220709393"/>
    </vehicle>
    <vehicle id="367" depart="45.00">
        <route edges="-49038772#1 542807708#3 557086947#0 833428765#0 557086946#0 1125594742 532322039#0 532322037#0"/>
    </vehicle>
    <vehicle id="368" depart="46.00">
        <route edges="370693008#0 525704074#1 1125594742 532322039#0 532322039#4"/>
    </vehicle>
    <vehicle id="369" depart="46.00">
        <route edges="23560552#0 23560518#0 1174948411 235826551#0 235826551#4 1125594741#0 557086948#3 557086948#4 557086948#5 220709393"/>
    </vehicle>
    <vehicle id="370" depart="46.00">
        <route edges="-23560614#1 532322037#0"/>
    </vehicle>
    <vehicle id="372" depart="46.00">
        <route edges="23560597#0 542807708#0 542807708#3 557086947#0 833428765#0 557086946#0 1125594742 692973061#0 845996846#0 23560611#0"/>
    </vehicle>
    <vehicle id="373" depart="46.00">
        <route edges="370693008#0 525704074#1 1125594742 692973061#0 693467519#0 -958578961#7 958578966#0"/>
    </vehicle>
    <vehicle id="375" depart="46.00">
        <route edges="423199309#0 542807706 735188027#0 776140146#0 1174948411 845996846#0 845996846#8"/>
    </vehicle>
    <vehicle id="378" depart="47.00">
        <route edges="23560551#0 753866465#0 753866465#3 735188027#0 776140146#0 1174948411 845996846#0 23560610#0 958578961#0 958578961#3 693467519#2 936543450 23560513#0 23560513#3"/>
    </vehicle>
    <vehicle id="385" depart="48.00">
        <route edges="125343236#0 23560561#0 -23560561#3 753866465#3 735188027#0 776140146#0 1174948411 235826551#0 235826551#4 1125594741#0 557086948#3 23560592#0 140365927#0"/>
    </vehicle>
    <vehicle id="387" depart="48.00">
        <route edges="23560555#0 136160205#0 693467519#0 693467519#2 936543450 707457972#0 542807707 753866466#0 -426720110#4 23560556#0 23560556#2 23560567#0"/>
    </vehicle>
    <vehicle id="390" depart="48.00">
        <route edges="-23560570#1 23560556#2 23560556#5 -23560536#0 542807707 753866466#0 723085254 1144085347"/>
    </vehicle>
    <vehicle id="395" depart="49.00">