<?xml version="1.0" encoding="iso-8859-1"?>

<configuration xmlns:xsi="http://www.w3.org/2001/XMLSchema-instance" xsi:noNamespaceSchemaLocation="http://sumo.sf.net/xsd/sumoConfiguration.xsd">

    <input>
        <net-file value="vake.net.xml"/>
        <route-files value="vake.rou.xml"/>
    </input>

    <time>
        <begin value="0"/>
        <end value="10000"/>
    </time>
    
    <processing>
    	<time-to-teleport value="-1"/>
    </processing>

    <output>
        <tripinfo-output value="/home/demetere/Projects/mai/traffic-control/tfm-atl/resco_benchmark/results/FIXED-tr0-vake-0-drq_norm-wait_norm/tripinfo_1.xml"/>
    </output>
</configuration>
